[TITLE]
;;Project Title/Notes

[OPTIONS]
;;Option             Value
FLOW_UNITS           CFS
INFILTRATION         HORTON
FLOW_ROUTING         DYNWAVE
LINK_OFFSETS         DEPTH
MIN_SLOPE            0
ALLOW_PONDING        NO
SKIP_STEADY_STATE    NO

START_DATE           01/01/2024
START_TIME           00:00:00
REPORT_START_DATE    01/01/2024
REPORT_START_TIME    00:00:00
END_DATE             01/01/2024
END_TIME             00:02:00
SWEEP_START          01/01
SWEEP_END            12/31
DRY_DAYS             0
REPORT_STEP          00:00:01
WET_STEP             00:00:01
DRY_STEP             00:00:01
ROUTING_STEP         0.01
RULE_STEP            00:00:00

INERTIAL_DAMPING     PARTIAL
NORMAL_FLOW_LIMITED  BOTH
FORCE_MAIN_EQUATION  H-W
VARIABLE_STEP        0.00
LENGTHENING_STEP     0
MIN_SURFAREA         0.001
MAX_TRIALS           10
HEAD_TOLERANCE       0.0005
SYS_FLOW_TOL         5
LAT_FLOW_TOL         5
MINIMUM_STEP         0.1
THREADS              1

[EVAPORATION]
;;Data Source    Parameters
;;-------------- ----------------
CONSTANT         0.0
DRY_ONLY         NO

[JUNCTIONS]
;;Name           Elevation  MaxDepth   InitDepth  SurDepth   Aponded   
;;-------------- ---------- ---------- ---------- ---------- ----------
1                2.15       0          0          0          0         
2                2.7        0          0          0          0         
3                2.75       0          0          0          0         
4                3.12       0          0          0          0         
5                3.43       0          0          0          0         
6                3.96       0          0          0          0         
7                2.725      0          0          0          0         
8                2.725      0          0          0          0         
10               3.907      0          0          103.96     0         
11               3.854      0          0          103.96     0         
12               3.801      0          0          103.96     0         
13               3.748      0          0          103.96     0         
14               3.6950000000000003 0          0          103.96     0         
15               3.6420000000000003 0          0          103.96     0         
16               3.589      0          0          103.96     0         
17               3.536      0          0          103.96     0         
18               3.483      0          0          103.96     0         
19               3.399      0          0          103.96     0         
20               3.3680000000000003 0          0          103.96     0         
21               3.337      0          0          103.96     0         
22               3.306      0          0          103.96     0         
23               3.2750000000000004 0          0          103.96     0         
24               3.244      0          0          103.96     0         
25               3.213      0          0          103.96     0         
26               3.182      0          0          103.96     0         
27               3.1510000000000002 0          0          103.96     0         
28               3.083      0          0          103.96     0         
29               3.0460000000000003 0          0          103.96     0         
30               3.009      0          0          103.96     0         
31               2.972      0          0          103.96     0         
32               2.935      0          0          103.96     0         
33               2.898      0          0          103.96     0         
34               2.861      0          0          103.96     0         
35               2.824      0          0          103.96     0         
36               2.787      0          0          103.96     0         
37               2.7475     0          0          103.96     0         
38               2.745      0          0          103.96     0         
39               2.7425     0          0          103.96     0         
40               2.74       0          0          103.96     0         
41               2.7375     0          0          103.96     0         
42               2.735      0          0          103.96     0         
43               2.7325     0          0          103.96     0         
44               2.73       0          0          103.96     0         
45               2.7275     0          0          103.96     0         
46               2.725      0          0          103.96     0         
47               2.725      0          0          103.96     0         
48               2.725      0          0          103.96     0         
49               2.725      0          0          103.96     0         
50               2.725      0          0          103.96     0         
51               2.725      0          0          103.96     0         
52               2.725      0          0          103.96     0         
53               2.725      0          0          103.96     0         
54               2.725      0          0          103.96     0         
55               2.7225     0          0          103.96     0         
56               2.72       0          0          103.96     0         
57               2.7175000000000002 0          0          103.96     0         
58               2.7150000000000003 0          0          103.96     0         
59               2.7125000000000004 0          0          103.96     0         
60               2.71       0          0          103.96     0         
61               2.7075     0          0          103.96     0         
62               2.705      0          0          103.96     0         
63               2.7025     0          0          103.96     0         
64               2.645      0          0          103.96     0         
65               2.5900000000000003 0          0          103.96     0         
66               2.535      0          0          103.96     0         
67               2.48       0          0          103.96     0         
68               2.425      0          0          103.96     0         
69               2.37       0          0          103.96     0         
70               2.315      0          0          103.96     0         
71               2.26       0          0          103.96     0         
72               2.205      0          0          103.96     0         
73               2.1029999999999998 0          0          103.96     0         
74               2.056      0          0          103.96     0         
75               2.009      0          0          103.96     0         
76               1.962      0          0          103.96     0         
77               1.915      0          0          103.96     0         
78               1.8679999999999999 0          0          103.96     0         
79               1.821      0          0          103.96     0         
80               1.774      0          0          103.96     0         
81               1.7269999999999999 0          0          103.96     0         

[OUTFALLS]
;;Name           Elevation  Type       Stage Data       Gated    Route To        
;;-------------- ---------- ---------- ---------------- -------- ----------------
9                1.68       FREE                        NO                       

[CONDUITS]
;;Name           From Node        To Node          Length     Roughness  InOffset   OutOffset  InitFlow   MaxFlow   
;;-------------- ---------------- ---------------- ---------- ---------- ---------- ---------- ---------- ----------
17               6                10               1.0        0.01       0          0          0          0         
18               10               11               1.0        0.01       0          0          0          0         
19               11               12               1.0        0.01       0          0          0          0         
20               12               13               1.0        0.01       0          0          0          0         
21               13               14               1.0        0.01       0          0          0          0         
22               14               15               1.0        0.01       0          0          0          0         
23               15               16               1.0        0.01       0          0          0          0         
24               16               17               1.0        0.01       0          0          0          0         
25               17               18               1.0        0.01       0          0          0          0         
26               18               5                1.0        0.01       0          0          0          0         
27               5                19               1.0        0.01       0          0          0          0         
28               19               20               1.0        0.01       0          0          0          0         
29               20               21               1.0        0.01       0          0          0          0         
30               21               22               1.0        0.01       0          0          0          0         
31               22               23               1.0        0.01       0          0          0          0         
32               23               24               1.0        0.01       0          0          0          0         
33               24               25               1.0        0.01       0          0          0          0         
34               25               26               1.0        0.01       0          0          0          0         
35               26               27               1.0        0.01       0          0          0          0         
36               27               4                1.0        0.01       0          0          0          0         
37               4                28               1.0        0.01       0          0          0          0         
38               28               29               1.0        0.01       0          0          0          0         
39               29               30               1.0        0.01       0          0          0          0         
40               30               31               1.0        0.01       0          0          0          0         
41               31               32               1.0        0.01       0          0          0          0         
42               32               33               1.0        0.01       0          0          0          0         
43               33               34               1.0        0.01       0          0          0          0         
44               34               35               1.0        0.01       0          0          0          0         
45               35               36               1.0        0.01       0          0          0          0         
46               36               3                1.0        0.01       0          0          0          0         
47               3                37               1.0        0.01       0          0          0          0         
48               37               38               1.0        0.01       0          0          0          0         
49               38               39               1.0        0.01       0          0          0          0         
50               39               40               1.0        0.01       0          0          0          0         
51               40               41               1.0        0.01       0          0          0          0         
52               41               42               1.0        0.01       0          0          0          0         
53               42               43               1.0        0.01       0          0          0          0         
54               43               44               1.0        0.01       0          0          0          0         
55               44               45               1.0        0.01       0          0          0          0         
56               45               8                1.0        0.01       0          0          0          0         
57               8                46               1.0        0.01       0          0          0          0         
58               46               47               1.0        0.01       0          0          0          0         
59               47               48               1.0        0.01       0          0          0          0         
60               48               49               1.0        0.01       0          0          0          0         
61               49               50               1.0        0.01       0          0          0          0         
62               50               51               1.0        0.01       0          0          0          0         
63               51               52               1.0        0.01       0          0          0          0         
64               52               53               1.0        0.01       0          0          0          0         
65               53               54               1.0        0.01       0          0          0          0         
66               54               7                1.0        0.01       0          0          0          0         
67               7                55               1.0        0.01       0          0          0          0         
68               55               56               1.0        0.01       0          0          0          0         
69               56               57               1.0        0.01       0          0          0          0         
70               57               58               1.0        0.01       0          0          0          0         
71               58               59               1.0        0.01       0          0          0          0         
72               59               60               1.0        0.01       0          0          0          0         
73               60               61               1.0        0.01       0          0          0          0         
74               61               62               1.0        0.01       0          0          0          0         
75               62               63               1.0        0.01       0          0          0          0         
76               63               2                1.0        0.01       0          0          0          0         
77               2                64               1.0        0.01       0          0          0          0         
78               64               65               1.0        0.01       0          0          0          0         
79               65               66               1.0        0.01       0          0          0          0         
80               66               67               1.0        0.01       0          0          0          0         
81               67               68               1.0        0.01       0          0          0          0         
82               68               69               1.0        0.01       0          0          0          0         
83               69               70               1.0        0.01       0          0          0          0         
84               70               71               1.0        0.01       0          0          0          0         
85               71               72               1.0        0.01       0          0          0          0         
86               72               1                1.0        0.01       0          0          0          0         
87               1                73               1.0        0.01       0          0          0          0         
88               73               74               1.0        0.01       0          0          0          0         
89               74               75               1.0        0.01       0          0          0          0         
90               75               76               1.0        0.01       0          0          0          0         
91               76               77               1.0        0.01       0          0          0          0         
92               77               78               1.0        0.01       0          0          0          0         
93               78               79               1.0        0.01       0          0          0          0         
94               79               80               1.0        0.01       0          0          0          0         
95               80               81               1.0        0.01       0          0          0          0         
96               81               9                1.0        0.01       0          0          0          0         

[XSECTIONS]
;;Link           Shape        Geom1            Geom2      Geom3      Geom4      Barrels    Culvert   
;;-------------- ------------ ---------------- ---------- ---------- ---------- ---------- ----------
17               CIRCULAR     0.25             0.0        0.0        0.0        1                    
18               CIRCULAR     0.25             0.0        0.0        0.0        1                    
19               CIRCULAR     0.25             0.0        0.0        0.0        1                    
20               CIRCULAR     0.25             0.0        0.0        0.0        1                    
21               CIRCULAR     0.25             0.0        0.0        0.0        1                    
22               CIRCULAR     0.25             0.0        0.0        0.0        1                    
23               CIRCULAR     0.25             0.0        0.0        0.0        1                    
24               CIRCULAR     0.25             0.0        0.0        0.0        1                    
25               CIRCULAR     0.25             0.0        0.0        0.0        1                    
26               CIRCULAR     0.25             0.0        0.0        0.0        1                    
27               CIRCULAR     0.25             0.0        0.0        0.0        1                    
28               CIRCULAR     0.25             0.0        0.0        0.0        1                    
29               CIRCULAR     0.25             0.0        0.0        0.0        1                    
30               CIRCULAR     0.25             0.0        0.0        0.0        1                    
31               CIRCULAR     0.25             0.0        0.0        0.0        1                    
32               CIRCULAR     0.25             0.0        0.0        0.0        1                    
33               CIRCULAR     0.25             0.0        0.0        0.0        1                    
34               CIRCULAR     0.25             0.0        0.0        0.0        1                    
35               CIRCULAR     0.25             0.0        0.0        0.0        1                    
36               CIRCULAR     0.25             0.0        0.0        0.0        1                    
37               CIRCULAR     0.25             0.0        0.0        0.0        1                    
38               CIRCULAR     0.25             0.0        0.0        0.0        1                    
39               CIRCULAR     0.25             0.0        0.0        0.0        1                    
40               CIRCULAR     0.25             0.0        0.0        0.0        1                    
41               CIRCULAR     0.25             0.0        0.0        0.0        1                    
42               CIRCULAR     0.25             0.0        0.0        0.0        1                    
43               CIRCULAR     0.25             0.0        0.0        0.0        1                    
44               CIRCULAR     0.25             0.0        0.0        0.0        1                    
45               CIRCULAR     0.25             0.0        0.0        0.0        1                    
46               CIRCULAR     0.25             0.0        0.0        0.0        1                    
47               CIRCULAR     0.25             0.0        0.0        0.0        1                    
48               CIRCULAR     0.25             0.0        0.0        0.0        1                    
49               CIRCULAR     0.25             0.0        0.0        0.0        1                    
50               CIRCULAR     0.25             0.0        0.0        0.0        1                    
51               CIRCULAR     0.25             0.0        0.0        0.0        1                    
52               CIRCULAR     0.25             0.0        0.0        0.0        1                    
53               CIRCULAR     0.25             0.0        0.0        0.0        1                    
54               CIRCULAR     0.25             0.0        0.0        0.0        1                    
55               CIRCULAR     0.25             0.0        0.0        0.0        1                    
56               CIRCULAR     0.25             0.0        0.0        0.0        1                    
57               CIRCULAR     0.25             0.0        0.0        0.0        1                    
58               CIRCULAR     0.25             0.0        0.0        0.0        1                    
59               CIRCULAR     0.25             0.0        0.0        0.0        1                    
60               CIRCULAR     0.25             0.0        0.0        0.0        1                    
61               CIRCULAR     0.25             0.0        0.0        0.0        1                    
62               CIRCULAR     0.25             0.0        0.0        0.0        1                    
63               CIRCULAR     0.25             0.0        0.0        0.0        1                    
64               CIRCULAR     0.25             0.0        0.0        0.0        1                    
65               CIRCULAR     0.25             0.0        0.0        0.0        1                    
66               CIRCULAR     0.25             0.0        0.0        0.0        1                    
67               CIRCULAR     0.25             0.0        0.0        0.0        1                    
68               CIRCULAR     0.25             0.0        0.0        0.0        1                    
69               CIRCULAR     0.25             0.0        0.0        0.0        1                    
70               CIRCULAR     0.25             0.0        0.0        0.0        1                    
71               CIRCULAR     0.25             0.0        0.0        0.0        1                    
72               CIRCULAR     0.25             0.0        0.0        0.0        1                    
73               CIRCULAR     0.25             0.0        0.0        0.0        1                    
74               CIRCULAR     0.25             0.0        0.0        0.0        1                    
75               CIRCULAR     0.25             0.0        0.0        0.0        1                    
76               CIRCULAR     0.25             0.0        0.0        0.0        1                    
77               CIRCULAR     0.25             0.0        0.0        0.0        1                    
78               CIRCULAR     0.25             0.0        0.0        0.0        1                    
79               CIRCULAR     0.25             0.0        0.0        0.0        1                    
80               CIRCULAR     0.25             0.0        0.0        0.0        1                    
81               CIRCULAR     0.25             0.0        0.0        0.0        1                    
82               CIRCULAR     0.25             0.0        0.0        0.0        1                    
83               CIRCULAR     0.25             0.0        0.0        0.0        1                    
84               CIRCULAR     0.25             0.0        0.0        0.0        1                    
85               CIRCULAR     0.25             0.0        0.0        0.0        1                    
86               CIRCULAR     0.25             0.0        0.0        0.0        1                    
87               CIRCULAR     0.25             0.0        0.0        0.0        1                    
88               CIRCULAR     0.25             0.0        0.0        0.0        1                    
89               CIRCULAR     0.25             0.0        0.0        0.0        1                    
90               CIRCULAR     0.25             0.0        0.0        0.0        1                    
91               CIRCULAR     0.25             0.0        0.0        0.0        1                    
92               CIRCULAR     0.25             0.0        0.0        0.0        1                    
93               CIRCULAR     0.25             0.0        0.0        0.0        1                    
94               CIRCULAR     0.25             0.0        0.0        0.0        1                    
95               CIRCULAR     0.25             0.0        0.0        0.0        1                    
96               CIRCULAR     0.25             0.0        0.0        0.0        1                    

[INFLOWS]
;;Node           Constituent      Time Series      Type     Mfactor  Sfactor  Baseline Pattern
;;-------------- ---------------- ---------------- -------- -------- -------- -------- --------
6                FLOW             baseline1        FLOW     1.0      1.0              

[TIMESERIES]
;;Name           Date       Time       Value     
;;-------------- ---------- ---------- ----------
baseline1        FILE "C:\Users\rabbi\OneDrive\Documents\GitHub\urbansurge\analysis\lab_system\data_acquisition\swmm_impulse_files\impulse_file_baseline_1.dat"

[REPORT]
;;Reporting Options
SUBCATCHMENTS ALL
NODES ALL
LINKS ALL

[TAGS]

[MAP]
DIMENSIONS -803.084 0.000 10340.450 10000.000
Units      Feet

[COORDINATES]
;;Node           X-Coord            Y-Coord           
;;-------------- ------------------ ------------------
1                1613.286           4531.435          
2                3226.572           4567.023          
3                4934.757           4602.610          
4                6465.006           4638.197          
5                8125.741           4661.922          
6                9833.926           4827.995          
7                3772.242           4602.610          
8                4294.187           4614.472          
10               9663.108           4811.388          
11               9492.289           4794.780          
12               9321.470           4778.173          
13               9150.652           4761.566          
14               8979.833           4744.958          
15               8809.015           4728.351          
16               8638.196           4711.744          
17               8467.378           4695.137          
18               8296.559           4678.529          
19               7959.668           4659.549          
20               7793.594           4657.177          
21               7627.521           4654.804          
22               7461.447           4652.432          
23               7295.374           4650.059          
24               7129.300           4647.687          
25               6963.227           4645.314          
26               6797.153           4642.942          
27               6631.080           4640.570          
28               6311.981           4634.638          
29               6158.956           4631.080          
30               6005.931           4627.521          
31               5852.906           4623.962          
32               5699.881           4620.404          
33               5546.857           4616.845          
34               5393.832           4613.286          
35               5240.807           4609.727          
36               5087.782           4606.169          
37               4870.700           4603.796          
38               4806.643           4604.982          
39               4742.586           4606.169          
40               4678.529           4607.355          
41               4614.472           4608.541          
42               4550.415           4609.727          
43               4486.358           4610.913          
44               4422.301           4612.100          
45               4358.244           4613.286          
46               4241.992           4613.286          
47               4189.798           4612.100          
48               4137.604           4610.913          
49               4085.409           4609.727          
50               4033.214           4608.541          
51               3981.020           4607.355          
52               3928.826           4606.169          
53               3876.631           4604.982          
54               3824.437           4603.796          
55               3717.675           4599.051          
56               3663.108           4595.493          
57               3608.541           4591.934          
58               3553.974           4588.375          
59               3499.407           4584.816          
60               3444.840           4581.258          
61               3390.273           4577.699          
62               3335.706           4574.140          
63               3281.139           4570.582          
64               3065.243           4563.464          
65               2903.915           4559.905          
66               2742.586           4556.347          
67               2581.258           4552.788          
68               2419.929           4549.229          
69               2258.600           4545.670          
70               2097.272           4542.111          