[TITLE]
;;Project Title/Notes

[OPTIONS]
;;Option             Value
FLOW_UNITS           CFS
INFILTRATION         HORTON
FLOW_ROUTING         DYNWAVE
LINK_OFFSETS         DEPTH
MIN_SLOPE            0
ALLOW_PONDING        NO
SKIP_STEADY_STATE    NO

START_DATE           01/01/2020
START_TIME           00:00:00
REPORT_START_DATE    01/01/2020
REPORT_START_TIME    00:00:00
END_DATE             01/01/2020
END_TIME             06:00:00
SWEEP_START          01/01
SWEEP_END            12/31
DRY_DAYS             0
REPORT_STEP          00:01:00
WET_STEP             00:00:10
DRY_STEP             00:00:10
ROUTING_STEP         0:00:10 
RULE_STEP            00:00:00

INERTIAL_DAMPING     PARTIAL
NORMAL_FLOW_LIMITED  BOTH
FORCE_MAIN_EQUATION  H-W
VARIABLE_STEP        0.75
LENGTHENING_STEP     0
MIN_SURFAREA         12.566
MAX_TRIALS           8
HEAD_TOLERANCE       0.005
SYS_FLOW_TOL         5
LAT_FLOW_TOL         5
MINIMUM_STEP         0.5
THREADS              1

[EVAPORATION]
;;Data Source    Parameters
;;-------------- ----------------
CONSTANT         0.0
DRY_ONLY         NO

[RAINGAGES]
;;Name           Format    Interval SCF      Source    
;;-------------- --------- ------ ------ ----------
1                INTENSITY 0:01     1.0      TIMESERIES Pimpulse_M2_L30_R1
19               INTENSITY 0:05     1.0      TIMESERIES Dry             

[SUBCATCHMENTS]
;;Name           Rain Gage        Outlet           Area     %Imperv  Width    %Slope   CurbLen  SnowPack        
;;-------------- ---------------- ---------------- -------- -------- -------- -------- -------- ----------------
65               19               59               5        0        500      10       0                        
66               19               14               5        0        500      10       0                        
67               19               13               5        0        500      10       0                        
68               19               11               5        0        500      10       0                        
69               19               10               5        0        500      10       0                        
70               19               9                5        0        500      10       0                        
71               19               8                5        0        500      10       0                        
72               19               7                5        0        500      10       0                        
73               19               6                5        0        500      10       0                        
74               19               2                5        0        500      10       0                        
75               19               5                5        0        500      10       0                        
76               19               3                5        0        500      10       0                        
77               19               4                5        0        500      10       0                        
78               19               15               5        0        500      10       0                        
79               19               16               5        0        500      10       0                        
80               19               19               5        0        500      10       0                        
81               19               18               100      1        500      10       0                        
82               19               17               5        0        500      10       0                        
83               19               20               5        0        500      10       0                        

[SUBAREAS]
;;Subcatchment   N-Imperv   N-Perv     S-Imperv   S-Perv     PctZero    RouteTo    PctRouted 
;;-------------- ---------- ---------- ---------- ---------- ---------- ---------- ----------
65               0.01       0.1        0.05       0.05       25         OUTLET    
66               0.01       0.1        0.05       0.05       25         OUTLET    
67               0.01       0.1        0.05       0.05       25         OUTLET    
68               0.01       0.1        0.05       0.05       25         OUTLET    
69               0.01       0.1        0.05       0.05       25         OUTLET    
70               0.01       0.1        0.05       0.05       25         OUTLET    
71               0.01       0.1        0.05       0.05       25         OUTLET    
72               0.01       0.1        0.05       0.05       25         OUTLET    
73               0.01       0.1        0.05       0.05       25         OUTLET    
74               0.01       0.1        0.05       0.05       25         OUTLET    
75               0.01       0.1        0.05       0.05       25         OUTLET    
76               0.01       0.1        0.05       0.05       25         OUTLET    
77               0.01       0.1        0.05       0.05       25         OUTLET    
78               0.01       0.1        0.05       0.05       25         OUTLET    
79               0.01       0.1        0.05       0.05       25         OUTLET    
80               0.01       0.1        0.05       0.05       25         OUTLET    
81               0.01       0.1        0.05       0.05       25         OUTLET    
82               0.01       0.1        0.05       0.05       25         OUTLET    
83               0.01       0.1        0.05       0.05       25         OUTLET    

[INFILTRATION]
;;Subcatchment   Param1     Param2     Param3     Param4     Param5    
;;-------------- ---------- ---------- ---------- ---------- ----------
65               3.0        0.5        4          7          0         
66               3.0        0.5        4          7          0         
67               3.0        0.5        4          7          0         
68               3.0        0.5        4          7          0         
69               3.0        0.5        4          7          0         
70               3.0        0.5        4          7          0         
71               3.0        0.5        4          7          0         
72               3.0        0.5        4          7          0         
73               3.0        0.5        4          7          0         
74               3.0        0.5        4          7          0         
75               3.0        0.5        4          7          0         
76               3.0        0.5        4          7          0         
77               3.0        0.5        4          7          0         
78               3.0        0.5        4          7          0         
79               3.0        0.5        4          7          0         
80               3.0        0.5        4          7          0         
81               3.0        0.5        4          7          0         
82               3.0        0.5        4          7          0         
83               3.0        0.5        4          7          0         

[JUNCTIONS]
;;Name           Elevation  MaxDepth   InitDepth  SurDepth   Aponded   
;;-------------- ---------- ---------- ---------- ---------- ----------
2                10         0          0          0          0         
3                20         0          0          0          0         
4                30         0          0          0          0         
5                30         0          0          0          0         
6                20         0          0          0          0         
7                40         0          0          0          0         
8                50         0          0          0          0         
9                60         0          0          0          0         
10               60         0          0          0          0         
11               50         0          0          0          0         
13               50         0          0          0          0         
14               50         0          0          0          0         
15               20         0          0          0          0         
16               30         0          0          0          0         
17               40         0          0          0          0         
18               50         0          0          0          0         
19               50         0          0          0          0         
21               5.1        0          0          100        0         
22               4.95       0          0          100        0         
23               14.95      0          0          0          0         
24               15.1       0          0          0          0         
25               24.95      0          0          0          0         
26               25.1       0          0          0          0         
27               24.95      0          0          0          0         
28               25.1       0          0          0          0         
29               14.95      0          0          0          0         
30               15.1       0          0          0          0         
31               24.95      0          0          0          0         
33               44.95      0          0          0          0         
34               45.1       0          0          0          0         
35               44.95      0          0          0          0         
36               45.1       0          0          0          0         
37               34.95      0          0          0          0         
38               35.1       0          0          0          0         
39               44.95      0          0          0          0         
40               45.1       0          0          0          0         
41               54.95      0          0          0          0         
42               55.1       0          0          0          0         
43               54.95      0          0          0          0         
44               55.1       0          0          0          0         
45               44.95      0          0          0          0         
46               45.1       0          0          0          0         
47               14.95      0          0          100        0         
48               15.1       0          0          100        0         
49               24.95      0          0          0          0         
50               25.1       0          0          0          0         
51               35.1       0          0          100        0         
52               34.95      0          0          100        0         
53               25.1       0          0          100        0         
54               24.95      0          0          100        0         
55               44.95      0          0          100        0         
56               45.1       0          0          100        0         
57               45.1       0          0          0          0         
58               44.95      0          0          0          0         
59               30         0          0          0          0         
60               25.1       0          0          0          0         
61               34.95      0          0          0          0         
62               35.1       0          0          0          0         
63               40         0          0          0          0         

[OUTFALLS]
;;Name           Elevation  Type       Stage Data       Gated    Route To        
;;-------------- ---------- ---------- ---------------- -------- ----------------
1                0          FREE                        NO                       

[STORAGE]
;;Name           Elev.    MaxDepth   InitDepth  Shape      Curve Type/Params            SurDepth  Fevap    Psi      Ksat     IMD     
;;-------------- -------- ---------- ----------- ---------- ---------------------------- --------- --------          -------- --------
20               29       2          0          PYRAMIDAL  30         30         0        0         0       

[CONDUITS]
;;Name           From Node        To Node          Length     Roughness  InOffset   OutOffset  InitFlow   MaxFlow   
;;-------------- ---------------- ---------------- ---------- ---------- ---------- ---------- ---------- ----------
20               22               1                250        0.01       0          0          0          0         
21               2                21               250        0.01       0          0          0          0         
22               23               2                250        0.01       0          0          0          0         
23               47               2                250        0.01       0          0          0          0         
24               4                26               250        0.01       0          0          0          0         
25               25               3                250        0.01       0          0          0          0         
26               3                24               250        0.01       0          0          0          0         
27               5                28               250        0.01       0          0          0          0         
28               27               3                250        0.01       0          0          0          0         
29               13               34               250        0.01       0          0          0          0         
33               6                30               250        0.01       0          0          0          0         
34               31               6                250        0.01       0          0          0          0         
37               14               36               250        0.01       0          0          0          0         
38               29               2                250        0.01       0          0          0          0         
39               18               56               250        0.01       0          0          0          0         
40               55               17               250        0.01       0          0          0          0         
41               17               51               250        0.01       0          0          0          0         
42               52               20               250        0.01       0          1          0          0         
43               20               53               250        0.01       1          0          0          0         
44               54               15               250        0.01       0          0          0          0         
45               15               48               250        0.01       0          0          0          0         
46               16               50               250        0.01       0          0          0          0         
47               49               15               250        0.01       0          0          0          0         
48               19               57               250        0.01       0          0          0          0         
49               58               17               250        0.01       0          0          0          0         
50               9                42               250        0.01       0          0          0          0         
51               41               8                250        0.01       0          0          0          0         
52               8                40               250        0.01       0          0          0          0         
53               39               7                250        0.01       0          0          0          0         
54               7                38               250        0.01       0          0          0          0         
55               37               59               250        0.01       0          0          0          0         
56               10               44               250        0.01       0          0          0          0         
57               43               8                250        0.01       0          0          0          0         
58               11               46               250        0.01       0          0          0          0         
59               45               7                250        0.01       0          0          0          0         
60               59               60               250        0.01       0          0          0          0         
61               33               63               250        0.01       0          0          0          0         
62               35               63               250        0.01       0          0          0          0         
63               63               62               250        0.01       0          0          0          0         
65               61               59               250        0.01       0          0          0          0         
66               36               35               5          0.01       0          0          0          0         
67               34               33               5          0.01       0          0          0          0         
68               46               45               5          0.01       0          0          0          0         
69               44               43               5          0.01       0          0          0          0         
70               42               41               5          0.01       0          0          0          0         
71               40               39               5          0.01       0          0          0          0         
72               38               37               5          0.01       0          0          0          0         
73               62               61               5          0.01       0          0          0          0         
74               60               31               5          0.01       0          0          0          0         
75               30               29               5          0.01       0          0          0          0         
76               21               22               5          0.01       0          0          0          0         
77               56               55               5          0.01       0          0          0          0         
78               51               52               5          0.01       0          0          0          0         
79               53               54               5          0.01       0          0          0          0         
80               48               47               5          0.01       0          0          0          0         
81               57               58               5          0.01       0          0          0          0         
82               50               49               5          0.01       0          0          0          0         
84               24               23               5          0.01       0          0          0          0         
85               28               27               5          0.01       0          0          0          0         
83               26               25               400        0.01       0          0          0          0         

[XSECTIONS]
;;Link           Shape        Geom1            Geom2      Geom3      Geom4      Barrels    Culvert   
;;-------------- ------------ ---------------- ---------- ---------- ---------- ---------- ----------
20               CIRCULAR     1.5              0          0          0          1                    
21               CIRCULAR     1.5              0          0          0          1                    
22               CIRCULAR     1                0          0          0          1                    
23               CIRCULAR     1                0          0          0          1                    
24               CIRCULAR     1                0          0          0          1                    
25               CIRCULAR     1                0          0          0          1                    
26               CIRCULAR     1                0          0          0          1                    
27               CIRCULAR     1                0          0          0          1                    
28               CIRCULAR     1                0          0          0          1                    
29               CIRCULAR     1                0          0          0          1                    
33               CIRCULAR     1                0          0          0          1                    
34               CIRCULAR     1                0          0          0          1                    
37               CIRCULAR     1                0          0          0          1                    
38               CIRCULAR     1                0          0          0          1                    
39               CIRCULAR     1                0          0          0          1                    
40               CIRCULAR     1                0          0          0          1                    
41               CIRCULAR     1                0          0          0          1                    
42               CIRCULAR     1                0          0          0          1                    
43               CIRCULAR     1                0          0          0          1                    
44               CIRCULAR     1                0          0          0          1                    
45               CIRCULAR     1                0          0          0          1                    
46               CIRCULAR     1                0          0          0          1                    
47               CIRCULAR     1                0          0          0          1                    
48               CIRCULAR     1                0          0          0          1                    
49               CIRCULAR     1                0          0          0          1                    
50               CIRCULAR     1                0          0          0          1                    
51               CIRCULAR     1                0          0          0          1                    
52               CIRCULAR     1                0          0          0          1                    
53               CIRCULAR     1                0          0          0          1                    
54               CIRCULAR     1                0          0          0          1                    
55               CIRCULAR     1                0          0          0          1                    
56               CIRCULAR     1                0          0          0          1                    
57               CIRCULAR     1                0          0          0          1                    
58               CIRCULAR     1                0          0          0          1                    
59               CIRCULAR     1                0          0          0          1                    
60               CIRCULAR     1                0          0          0          1                    
61               CIRCULAR     1                0          0          0          1                    
62               CIRCULAR     1                0          0          0          1                    
63               CIRCULAR     1                0          0          0          1                    
65               CIRCULAR     1                0          0          0          1                    
66               CIRCULAR     1                0          0          0          1                    
67               CIRCULAR     1                0          0          0          1                    
68               CIRCULAR     1                0          0          0          1                    
69               CIRCULAR     1                0          0          0          1                    
70               CIRCULAR     1                0          0          0          1                    
71               CIRCULAR     1                0          0          0          1                    
72               CIRCULAR     1                0          0          0          1                    
73               CIRCULAR     1                0          0          0          1                    
74               CIRCULAR     1                0          0          0          1                    
75               CIRCULAR     1                0          0          0          1                    
76               CIRCULAR     1                0          0          0          1                    
77               CIRCULAR     1                0          0          0          1                    
78               CIRCULAR     1                0          0          0          1                    
79               CIRCULAR     1                0          0          0          1                    
80               CIRCULAR     1                0          0          0          1                    
81               CIRCULAR     1                0          0          0          1                    
82               CIRCULAR     1                0          0          0          1                    
84               CIRCULAR     1                0          0          0          1                    
85               CIRCULAR     1                0          0          0          1                    
83               CIRCULAR     1                0          0          0          1                    

[INFLOWS]
;;Node           Constituent      Time Series      Type     Mfactor  Sfactor  Baseline Pattern
;;-------------- ---------------- ---------------- -------- -------- -------- -------- --------
18               FLOW             Pimpulse_M1_L30_R1 FLOW     1.0      5.727            

[TIMESERIES]
;;Name           Date       Time       Value     
;;-------------- ---------- ---------- ----------
P_N20_M2_L10_R50 FILE "precipitation\precip_data\P_N20_M2_L10_R50.dat"
;
P_N20_M1_L10_R50 FILE "precipitation\precip_data\P_N20_M1_L10_R50.dat"
;
P_N20_M1_L1_R50  FILE "precipitation\precip_data\P_N20_M1_L1_R50.dat"
;
P_N5_M1_L1_R50   FILE "precipitation\precip_data\P_N5_M1_L1_R50.dat"
;
P_N1_M1_L4_R50   FILE "precipitation\precip_data\P_N1_M1_L4_R50.dat"
;
;No precipitation time series.
Dry                         0          0         
;
P_N1_M2_L4_R50   FILE "precipitation\precip_data\P_N1_M2_L4_R50.dat"
;
Pimpulse_M4_L30_R1 FILE "precipitation\precip_data\Pimpulse_M4_L30_R1.dat"
;
Pimpulse_M3.5_L30_R1 FILE "precipitation\precip_data\Pimpulse_M3.5_L30_R1.dat"
;
Pimpulse_M2_L30_R1 FILE "precipitation\precip_data\Pimpulse_M2_L30_R1.dat"
;
Pimpulse_M1_L30_R1 FILE "precipitation\precip_data\Pimpulse_M1_L30_R1.dat"

[REPORT]
;;Reporting Options
SUBCATCHMENTS ALL
NODES ALL
LINKS ALL

[TAGS]
Link       66               clog            
Link       67               clog            
Link       68               clog            
Link       69               clog            
Link       70               clog            
Link       71               clog            
Link       72               clog            
Link       73               clog            
Link       74               clog            
Link       75               clog            
Link       76               clog            
Link       77               clog            
Link       78               clog            
Link       79               clog            
Link       80               clog            
Link       81               clog            
Link       82               clog            
Link       84               clog            
Link       85               clog            

[MAP]
DIMENSIONS -922.970 0.000 10886.238 10000.000
Units      None

[COORDINATES]
;;Node           X-Coord            Y-Coord           
;;-------------- ------------------ ------------------
2                4424.581           2256.983          
3                5642.458           2301.676          
4                7575.419           2335.196          
5                5575.419           3765.363          
6                4446.927           4581.006          
7                5687.151           5541.899          
8                7363.128           5631.285          
9                9195.531           5631.285          
10               8212.291           6983.240          
11               6290.503           7072.626          
13               4994.413           7083.799          
14               3530.726           7050.279          
15               3117.318           2212.291          
16               1597.765           2189.944          
17               2905.028           4793.296          
18               2000.000           6122.905          
19               1307.263           4759.777          
21               4424.581           1776.536          
22               4469.274           1307.263          
23               4826.816           2268.156          
24               5262.570           2268.156          
25               6145.251           2312.849          
26               6793.296           2335.196          
27               5620.112           2681.564          
28               5586.592           3262.570          
29               4458.101           3072.626          
30               4424.581           3899.441          
31               4446.927           4960.894          
33               4636.872           6312.849          
34               4882.682           6793.296          
35               4122.905           6324.022          
36               3798.883           6737.430          
37               4826.816           5564.246          
38               5217.877           5564.246          
39               6212.291           5575.419          