[TITLE]
;;Project Title/Notes

[OPTIONS]
;;Option             Value
FLOW_UNITS           CFS
INFILTRATION         HORTON
FLOW_ROUTING         DYNWAVE
LINK_OFFSETS         DEPTH
MIN_SLOPE            0
ALLOW_PONDING        NO
SKIP_STEADY_STATE    NO

START_DATE           01/01/2020
START_TIME           00:00:00
REPORT_START_DATE    01/01/2020
REPORT_START_TIME    00:00:00
END_DATE             01/02/2020
END_TIME             06:00:00
SWEEP_START          01/01
SWEEP_END            12/31
DRY_DAYS             0
REPORT_STEP          00:00:10
WET_STEP             00:00:10
DRY_STEP             00:00:10
ROUTING_STEP         0.5
RULE_STEP            00:00:00

INERTIAL_DAMPING     PARTIAL
NORMAL_FLOW_LIMITED  BOTH
FORCE_MAIN_EQUATION  H-W
VARIABLE_STEP        0.00
LENGTHENING_STEP     0
MIN_SURFAREA         0.75
MAX_TRIALS           8
HEAD_TOLERANCE       0.005
SYS_FLOW_TOL         5
LAT_FLOW_TOL         5
MINIMUM_STEP         0.5
THREADS              1

[EVAPORATION]
;;Data Source    Parameters
;;-------------- ----------------
CONSTANT         0.0
DRY_ONLY         NO

[JUNCTIONS]
;;Name           Elevation  MaxDepth   InitDepth  SurDepth   Aponded   
;;-------------- ---------- ---------- ---------- ---------- ----------
38               10         2          0          0          0         
39               8          12         0          0          0         
40               8          2          0          0          0         
41               6          12         0          0          0         
42               6          2          0          0          0         
43               4          12         0          0          0         
44               4          2          0          0          0         
45               2          12         0          0          0         
46               2          2          0          0          0         
47 9.666666666666666 0 0 110.0 0
48 9.333333333333334 0 0 110.0 0
49 9.0 0 0 110.0 0
50 8.666666666666666 0 0 110.0 0
51 8.333333333333334 0 0 110.0 0
52 7.666666666666667 0 0 110.0 0
53 7.333333333333333 0 0 110.0 0
54 7.0 0 0 110.0 0
55 6.666666666666667 0 0 110.0 0
56 6.333333333333334 0 0 110.0 0
57 5.666666666666667 0 0 110.0 0
58 5.333333333333333 0 0 110.0 0
59 5.0 0 0 110.0 0
60 4.666666666666667 0 0 110.0 0
61 4.333333333333334 0 0 110.0 0
62 3.6666666666666665 0 0 110.0 0
63 3.3333333333333335 0 0 110.0 0
64 3.0 0 0 110.0 0
65 2.666666666666667 0 0 110.0 0
66 2.3333333333333335 0 0 110.0 0
67 1.6666666666666667 0 0 110.0 0
68 1.3333333333333335 0 0 110.0 0
69 1.0 0 0 110.0 0
70 0.6666666666666667 0 0 110.0 0
71 0.3333333333333335 0 0 110.0 0

[OUTFALLS]
;;Name           Elevation  Type       Stage Data       Gated    Route To        
;;-------------- ---------- ---------- ---------------- -------- ----------------
10               0          FREE                        NO                       

[CONDUITS]
;;Name           From Node        To Node          Length     Roughness  InOffset   OutOffset  InitFlow   MaxFlow   
;;-------------- ---------------- ---------------- ---------- ---------- ---------- ---------- ---------- ----------
1 39 40 3 .03 0.0 0.0 0 0
2 41 42 3 .03 0.5 0.5 0 0
3 43 44 3 .03 0.0 0.0 0 0
4 45 46 3 .03 0.0 0.0 0 0
19 38 47 16.666666666666668 0.03 0 0 0 0
20 47 48 16.666666666666668 0.03 0 0 0 0
21 48 49 16.666666666666668 0.03 0 0 0 0
22 49 50 16.666666666666668 0.03 0 0 0 0
23 50 51 16.666666666666668 0.03 0 0 0 0
24 51 39 16.666666666666668 0.03 0 0 0 0
25 40 52 16.666666666666668 0.03 0 0 0 0
26 52 53 16.666666666666668 0.03 0 0 0 0
27 53 54 16.666666666666668 0.03 0 0 0 0
28 54 55 16.666666666666668 0.03 0 0 0 0
29 55 56 16.666666666666668 0.03 0 0 0 0
30 56 41 16.666666666666668 0.03 0 0 0 0
31 42 57 16.666666666666668 0.03 0 0 0 0
32 57 58 16.666666666666668 0.03 0 0 0 0
33 58 59 16.666666666666668 0.03 0 0 0 0
34 59 60 16.666666666666668 0.03 0 0 0 0
35 60 61 16.666666666666668 0.03 0 0 0 0
36 61 43 16.666666666666668 0.03 0 0 0 0
37 44 62 16.666666666666668 0.03 0 0 0 0
38 62 63 16.666666666666668 0.03 0 0 0 0
39 63 64 16.666666666666668 0.03 0 0 0 0
40 64 65 16.666666666666668 0.03 0 0 0 0
41 65 66 16.666666666666668 0.03 0 0 0 0
42 66 45 16.666666666666668 0.03 0 0 0 0
43 46 67 16.666666666666668 0.03 0 0 0 0
44 67 68 16.666666666666668 0.03 0 0 0 0
45 68 69 16.666666666666668 0.03 0 0 0 0
46 69 70 16.666666666666668 0.03 0 0 0 0
47 70 71 16.666666666666668 0.03 0 0 0 0
48 71 10 16.666666666666668 0.03 0 0 0 0

[XSECTIONS]
;;Link           Shape        Geom1            Geom2      Geom3      Geom4      Barrels    Culvert   
;;-------------- ------------ ---------------- ---------- ---------- ---------- ---------- ----------
1 CIRCULAR 1.0 0.0 0.0 0.0 1
2 CIRCULAR 0.5 0.0 0.0 0.0 1
3 CIRCULAR 1.0 0.0 0.0 0.0 1
4 CIRCULAR 1.0 0.0 0.0 0.0 1
19 CIRCULAR 1.0 0.0 0.0 0.0 1 
20 CIRCULAR 1.0 0.0 0.0 0.0 1 
21 CIRCULAR 1.0 0.0 0.0 0.0 1 
22 CIRCULAR 1.0 0.0 0.0 0.0 1 
23 CIRCULAR 1.0 0.0 0.0 0.0 1 
24 CIRCULAR 1.0 0.0 0.0 0.0 1 
25 CIRCULAR 1.0 0.0 0.0 0.0 1 
26 CIRCULAR 1.0 0.0 0.0 0.0 1 
27 CIRCULAR 1.0 0.0 0.0 0.0 1 
28 CIRCULAR 1.0 0.0 0.0 0.0 1 
29 CIRCULAR 1.0 0.0 0.0 0.0 1 
30 CIRCULAR 1.0 0.0 0.0 0.0 1 
31 CIRCULAR 1.0 0.0 0.0 0.0 1 
32 CIRCULAR 1.0 0.0 0.0 0.0 1 
33 CIRCULAR 1.0 0.0 0.0 0.0 1 
34 CIRCULAR 1.0 0.0 0.0 0.0 1 
35 CIRCULAR 1.0 0.0 0.0 0.0 1 
36 CIRCULAR 1.0 0.0 0.0 0.0 1 
37 CIRCULAR 1.0 0.0 0.0 0.0 1 
38 CIRCULAR 1.0 0.0 0.0 0.0 1 
39 CIRCULAR 1.0 0.0 0.0 0.0 1 
40 CIRCULAR 1.0 0.0 0.0 0.0 1 
41 CIRCULAR 1.0 0.0 0.0 0.0 1 
42 CIRCULAR 1.0 0.0 0.0 0.0 1 
43 CIRCULAR 1.0 0.0 0.0 0.0 1 
44 CIRCULAR 1.0 0.0 0.0 0.0 1 
45 CIRCULAR 1.0 0.0 0.0 0.0 1 
46 CIRCULAR 1.0 0.0 0.0 0.0 1 
47 CIRCULAR 1.0 0.0 0.0 0.0 1 
48 CIRCULAR 1.0 0.0 0.0 0.0 1 

[INFLOWS]
;;Node           Constituent      Time Series      Type     Mfactor  Sfactor  Baseline Pattern
;;-------------- ---------------- ---------------- -------- -------- -------- -------- --------
38               FLOW             R38              FLOW     1.0      1                
40               FLOW             R40              FLOW     1.0      1.0              
42               FLOW             R42              FLOW     1.0      1.0              
44               FLOW             R44              FLOW     1.0      1.0              
46               FLOW             R46              FLOW     1.0      1.0              

[TIMESERIES]
;;Name           Date       Time       Value     
;;-------------- ---------- ---------- ----------
P1M1             FILE "precipitation\precip_data\Pimpulse_M1_L30_R1.dat"
;
;5-yr storm
R5               FILE "precipitation\precip_data\Q5.dat"
;
R2.5             FILE "precipitation\precip_data\Q2.5.dat"
;
;TEST DESCRIPTION
TESTNAME         FILE "precipitation\precip_data\P_N1_M1_L4_R50.dat"
;
;TEST MANUAL
TESTMANUAL                  0          1         
TESTMANUAL                  1          2         
TESTMANUAL                  2          3         
TESTMANUAL                  3          4         
TESTMANUAL                  4          3         
TESTMANUAL                  5          2         
TESTMANUAL                  6          1         
;
R46              FILE "precipitation\precip_data\paper3_exp\R46.dat"
;
R44              FILE "precipitation\precip_data\paper3_exp\R44.dat"
;
R42              FILE "precipitation\precip_data\paper3_exp\R42.dat"
;
R40              FILE "precipitation\precip_data\paper3_exp\R40.dat"
;
R38              FILE "precipitation\precip_data\paper3_exp\R38.dat"
;
ResFor           FILE "precipitation\precip_data\paper3_exp\ResFor.dat"

[REPORT]
;;Reporting Options
SUBCATCHMENTS ALL
NODES ALL
LINKS ALL

[TAGS]

[MAP]
DIMENSIONS -3941.256 0.000 13163.921 10000.000
Units      None

[COORDINATES]
;;Node           X-Coord            Y-Coord           
;;-------------- ------------------ ------------------
38               12386.413          5647.249          
39               9845.960           5647.249          
40               9166.349           5647.249          
41               6771.527           5679.612          
42               6140.459           5695.793          
43               3422.012           5695.793          
44               2677.675           5679.612          
45               137.222            5760.518          
46               -574.752           5776.699          
10               -3163.748          5825.243          
47 11963.004 5647.249
48 11539.595 5647.249
49 11116.186 5647.249
50 10692.778 5647.249
51 10269.369 5647.249
52 8767.212 5652.643
53 8368.075 5658.037
54 7968.938 5663.43
55 7569.801 5668.824
56 7170.664 5674.218
57 5687.384 5695.793
58 5234.31 5695.793
59 4781.236 5695.793
60 4328.161 5695.793
61 3875.087 5695.793
62 2254.266 5693.096
63 1830.857 5706.581
64 1407.449 5720.065
65 984.04 5733.549
66 560.631 5747.034
67 -1006.251 5784.79
68 -1437.751 5792.88
69 -1869.25 5800.971
70 -2300.749 5809.062
71 -2732.249 5817.152

[VERTICES]
;;Link           X-Coord            Y-Coord           
;;-------------- ------------------ ------------------

[Polygons]
